** ***************************************************************************
**   Written by : FEMAP
**   Version    : 6.00
**   From Model : E:\VIOGEM\JPR\PR_kr53.MOD
**   Date       : Tue Aug 24 18:10:05 1999
** ***************************************************************************
** 
*NODE, NSET=GLOBAL
       1,        696.,       1682.,        425.
       2,   691.76708,   1691.6667,        425.
       3,   687.53417,   1701.3333,        425.
       4,   683.30125,       1711.,        425.
       5,   679.06833,   1720.6667,        425.
       6,   674.83542,   1730.3333,        425.
       7,    670.6025,       1740.,        425.
       8,        683.,       1676.,        425.
       9,    678.7029,       1685.,        425.
      10,    674.4058,       1694.,        425.
      11,    670.1087,       1703.,        425.
      12,    665.8116,       1712.,        425.
      13,    661.5145,       1721.,        425.
      14,    657.2174,       1730.,        425.
      15,   698.66667,   1687.3333,        417.
      16,    694.5842,   1696.5555,        417.
      17,   690.50173,   1705.7778,        417.
      18,   686.41926,       1715.,        417.
      19,    682.3368,   1724.2222,        417.
      20,   678.25433,   1733.4444,        417.
** ... 3847 like lines cut
*ELEMENT, TYPE=C3D8, ELSET=P1
      1,     15,     16,     23,     22,      1,      2,      9,      8
      2,     16,     17,     24,     23,      2,      3,     10,      9
      3,     17,     18,     25,     24,      3,      4,     11,     10
      4,     18,     19,     26,     25,      4,      5,     12,     11
      5,     19,     20,     27,     26,      5,      6,     13,     12
      6,     20,     21,     28,     27,      6,      7,     14,     13
      7,     29,     30,     37,     36,     15,     16,     23,     22
      8,     30,     31,     38,     37,     16,     17,     24,     23
      9,     31,     32,     39,     38,     17,     18,     25,     24
     10,     32,     33,     40,     39,     18,     19,     26,     25
     11,     33,     34,     41,     40,     19,     20,     27,     26
     12,     34,     35,     42,     41,     20,     21,     28,     27
     13,     43,     44,     51,     50,     29,     30,     37,     36
     14,     44,     45,     52,     51,     30,     31,     38,     37
     15,     45,     46,     53,     52,     31,     32,     39,     38
     16,     46,     47,     54,     53,     32,     33,     40,     39
     17,     47,     48,     55,     54,     33,     34,     41,     40
     18,     48,     49,     56,     55,     34,     35,     42,     41
     19,     57,     58,     65,     64,     43,     44,     51,     50
     20,     58,     59,     66,     65,     44,     45,     52,     51
** ... 1420 like lines cut
*ELSET, ELSET=OUT_CONT, GENERATE
1,1440,1
** FEMAP Property 1 : Untitled
*ORIENTATION, NAME=S0, DEFINITION=COORDINATES, SYSTEM=RECTANGULAR
        1.,        0.,        0.,        0.,        1.,        0.
*SOLID SECTION, ELSET=P1, MATERIAL=M1, ORIENTATION=S0
** FEMAP Material 1 : AISI 4340 Steel
*MATERIAL, NAME=M1
*ELASTIC, TYPE=ISOTROPIC
 29000000.,      0.32,       70.
*EXPANSION, TYPE=ISO
    6.6E-6,       70.
*DENSITY
0.00073315
*SPECIFIC HEAT
     38.64,       70.
*CONDUCTIVITY, TYPE=ISO
0.00048611,       70.
** Load Step 1 -------------------------------------------------------
*STEP, INC=100
Untitled
*STATIC

*NODE PRINT
   CF
   RF
    U
*EL PRINT, ELSET=OUT_CONT, POSITION=CENTROIDAL
    S
 SINV
*EL PRINT, ELSET=OUT_CONT,POSITION=NODES
    S
 SINV
*FILE FORMAT, ASCII
*NODE FILE
   CF
   RF
    U
*EL FILE, ELSET=OUT_CONT, POSITION=CENTROIDAL
    S
 SINV
*EL FILE, ELSET=OUT_CONT,POSITION=NODES
    S
 SINV
*BOUNDARY, OP=NEW
  150,    1
  150,    2
  150,    3
  150,    4
  150,    5
  150,    6
*ELSET, GENERATE, ELSET=E_ALL
    1 1440
*DLOAD, OP=NEW
E_ALL, GRAV,       10.,        0.,        1.,        0.
*END STEP
